64
Pas 30
Ar 0.00779412 0.00659967 0.0
Ar 0.0244576 1.06067 0.0
Ar 8.93358 2.17465 0.0
Ar 8.92165 3.36263 0.0
Ar 0.0681403 4.44929 0.0
Ar 8.91536 5.6281 0.0
Ar 0.00327752 6.71412 0.0
Ar 8.87981 7.88727 0.0
Ar 1.143 0.0021956 0.0
Ar 1.17435 1.07311 0.0
Ar 1.10675 2.15494 0.0
Ar 1.10674 3.28082 0.0
Ar 1.18046 4.4947 0.0
Ar 1.21865 5.66834 0.0
Ar 1.07297 6.74495 0.0
Ar 1.09889 7.86819 0.0
Ar 2.26126 0.0186915 0.0
Ar 2.30678 1.16844 0.0
Ar 2.17655 2.26931 0.0
Ar 2.18876 3.33598 0.0
Ar 2.23593 4.39825 0.0
Ar 2.29619 5.56679 0.0
Ar 2.20029 6.69367 0.0
Ar 2.29382 7.87951 0.0
Ar 3.3282 8.93222 0.0
Ar 3.40402 1.0603 0.0
Ar 3.28299 2.16241 0.0
Ar 3.40556 3.37669 0.0
Ar 3.27977 4.5081 0.0
Ar 3.37449 5.6059 0.0
Ar 3.28515 6.71688 0.0
Ar 3.42465 7.79166 0.0
Ar 4.39785 8.2457e-005 0.0
Ar 4.49833 1.08123 0.0
Ar 4.38574 2.23206 0.0
Ar 4.49282 3.32324 0.0
Ar 4.38283 4.55602 0.0
Ar 4.58388 5.60615 0.0
Ar 4.38584 6.6476 0.0
Ar 4.5055 7.71539 0.0
Ar 5.52375 0.010877 0.0
Ar 5.58254 1.17181 0.0
Ar 5.50298 2.30496 0.0
Ar 5.67451 3.41094 0.0
Ar 5.5139 4.52263 0.0
Ar 5.66281 5.66874 0.0
Ar 5.50975 6.75057 0.0
Ar 5.68361 7.85114 0.0
Ar 6.63378 0.0238754 0.0
Ar 6.74646 1.12253 0.0
Ar 6.71986 2.20417 0.0
Ar 6.74404 3.41689 0.0
Ar 6.62253 4.56027 0.0
Ar 6.71141 5.63125 0.0
Ar 6.71774 6.70263 0.0
Ar 6.77574 7.79387 0.0
Ar 7.87216 8.87289 0.0
Ar 7.82439 1.03644 0.0
Ar 7.83421 2.24984 0.0
Ar 7.80389 3.33088 0.0
Ar 7.87037 4.4187 0.0
Ar 7.76819 5.56964 0.0
Ar 7.85834 6.70486 0.0
Ar 7.82666 7.78061 0.0
