64
Pas 50
Ar 0.0788346 8.93967 0.0
Ar 0.0476528 1.0916 0.0
Ar 8.93766 2.16664 0.0
Ar 8.91057 3.30604 0.0
Ar 0.0950916 4.49232 0.0
Ar 8.91118 5.59167 0.0
Ar 8.90907 6.78367 0.0
Ar 8.9148 7.86002 0.0
Ar 1.1474 8.93989 0.0
Ar 1.21208 1.05866 0.0
Ar 1.05661 2.13032 0.0
Ar 1.05342 3.25503 0.0
Ar 1.15122 4.50952 0.0
Ar 1.23039 5.67145 0.0
Ar 1.10054 6.80324 0.0
Ar 1.08936 7.85809 0.0
Ar 2.22621 0.102846 0.0
Ar 2.33739 1.1832 0.0
Ar 2.16538 2.22405 0.0
Ar 2.22808 3.35522 0.0
Ar 2.24025 4.41399 0.0
Ar 2.33373 5.52544 0.0
Ar 2.13939 6.69733 0.0
Ar 2.31853 7.83953 0.0
Ar 3.30247 8.85642 0.0
Ar 3.4401 1.066 0.0
Ar 3.22607 2.14088 0.0
Ar 3.3593 3.37556 0.0
Ar 3.28763 4.51863 0.0
Ar 3.46893 5.63006 0.0
Ar 3.25109 6.68912 0.0
Ar 3.42896 7.81985 0.0
Ar 4.39253 8.87382 0.0
Ar 4.51114 1.11091 0.0
Ar 4.33484 2.1843 0.0
Ar 4.5869 3.35541 0.0
Ar 4.33255 4.53559 0.0
Ar 4.62208 5.57271 0.0
Ar 4.32036 6.65189 0.0
Ar 4.6064 7.70472 0.0
Ar 5.4628 0.0467859 0.0
Ar 5.62916 1.19881 0.0
Ar 5.46813 2.34271 0.0
Ar 5.66478 3.4519 0.0
Ar 5.44362 4.57774 0.0
Ar 5.66731 5.68394 0.0
Ar 5.46602 6.79931 0.0
Ar 5.70536 7.8694 0.0
Ar 6.6238 0.000817926 0.0
Ar 6.69517 1.10502 0.0
Ar 6.693 2.25153 0.0
Ar 6.74215 3.45078 0.0
Ar 6.59893 4.55655 0.0
Ar 6.74336 5.66021 0.0
Ar 6.70243 6.72128 0.0
Ar 6.76583 7.82084 0.0
Ar 7.82217 8.83583 0.0
Ar 7.90073 1.0168 0.0
Ar 7.82811 2.19604 0.0
Ar 7.85811 3.31839 0.0
Ar 7.88046 4.42149 0.0
Ar 7.80557 5.54595 0.0
Ar 7.84589 6.61447 0.0
Ar 7.84191 7.78904 0.0
