64
Pas 90
Ar 0.0356687 0.0189306 0.0
Ar 0.203551 1.12956 0.0
Ar 8.83664 2.21266 0.0
Ar 8.94312 3.2921 0.0
Ar 8.93222 4.47067 0.0
Ar 0.0798615 5.63385 0.0
Ar 8.85555 6.74105 0.0
Ar 0.0693162 7.87919 0.0
Ar 1.13834 8.93345 0.0
Ar 1.31352 1.06106 0.0
Ar 0.988107 2.13366 0.0
Ar 1.11807 3.25789 0.0
Ar 1.10253 4.52936 0.0
Ar 1.21193 5.66875 0.0
Ar 0.980674 6.75742 0.0
Ar 1.17669 7.85726 0.0
Ar 2.19105 0.144975 0.0
Ar 2.41995 1.23986 0.0
Ar 2.03764 2.26204 0.0
Ar 2.23681 3.30791 0.0
Ar 2.17838 4.45681 0.0
Ar 2.47311 5.55847 0.0
Ar 2.08048 6.64151 0.0
Ar 2.31712 7.78706 0.0
Ar 3.22308 8.87566 0.0
Ar 3.48947 1.0067 0.0
Ar 3.15648 2.15099 0.0
Ar 3.35483 3.35269 0.0
Ar 3.23735 4.55676 0.0
Ar 3.60203 5.6364 0.0
Ar 3.15484 6.69327 0.0
Ar 3.54964 7.70315 0.0
Ar 4.33435 8.73341 0.0
Ar 4.60804 1.04216 0.0
Ar 4.27499 2.18771 0.0
Ar 4.58248 3.36019 0.0
Ar 4.34318 4.38945 0.0
Ar 4.68374 5.52357 0.0
Ar 4.26508 6.61388 0.0
Ar 4.66952 7.7092 0.0
Ar 5.45473 0.158778 0.0
Ar 5.64968 1.28057 0.0
Ar 5.40699 2.41345 0.0
Ar 5.73053 3.58735 0.0
Ar 5.3893 4.69026 0.0
Ar 5.73794 5.75427 0.0
Ar 5.37567 6.85322 0.0
Ar 5.75099 8.0151 0.0
Ar 6.57841 8.92794 0.0
Ar 6.7884 1.10099 0.0
Ar 6.59258 2.368 0.0
Ar 6.80408 3.46098 0.0
Ar 6.53918 4.55071 0.0
Ar 6.84805 5.65188 0.0
Ar 6.60815 6.81336 0.0
Ar 6.83352 7.87725 0.0
Ar 7.71692 8.86862 0.0
Ar 7.9756 1.01124 0.0
Ar 7.74984 2.06862 0.0
Ar 7.83829 3.24194 0.0
Ar 7.85441 4.36149 0.0
Ar 7.92221 5.44579 0.0
Ar 7.7154 6.54236 0.0
Ar 7.90636 7.60611 0.0
