64
Pas 10
Ar 8.92385 0.00532113 0.0
Ar 0.0106042 1.08556 0.0
Ar 8.93535 2.21014 0.0
Ar 8.93808 3.37507 0.0
Ar 0.0215158 4.44584 0.0
Ar 8.9311 5.62218 0.0
Ar 0.0190099 6.69139 0.0
Ar 8.91139 7.86003 0.0
Ar 1.13029 8.94254 0.0
Ar 1.13786 1.10207 0.0
Ar 1.12575 2.20384 0.0
Ar 1.12933 3.32408 0.0
Ar 1.16137 4.48011 0.0
Ar 1.16296 5.62964 0.0
Ar 1.08184 6.70948 0.0
Ar 1.11125 7.85044 0.0
Ar 2.25251 8.92932 0.0
Ar 2.26512 1.13646 0.0
Ar 2.20433 2.27522 0.0
Ar 2.19984 3.32227 0.0
Ar 2.22213 4.44247 0.0
Ar 2.26039 5.5881 0.0
Ar 2.23582 6.69759 0.0
Ar 2.257 7.86738 0.0
Ar 3.34692 0.0173434 0.0
Ar 3.3677 1.08123 0.0
Ar 3.33306 2.20649 0.0
Ar 3.39697 3.36506 0.0
Ar 3.32401 4.48935 0.0
Ar 3.34606 5.58924 0.0
Ar 3.32223 6.72473 0.0
Ar 3.39411 7.79665 0.0
Ar 4.43753 0.0192931 0.0
Ar 4.48765 1.08728 0.0
Ar 4.44118 2.24928 0.0
Ar 4.45454 3.32855 0.0
Ar 4.43967 4.51148 0.0
Ar 4.51467 5.61475 0.0
Ar 4.44649 6.66667 0.0
Ar 4.46477 7.7798 0.0
Ar 5.57438 8.9419 0.0
Ar 5.57406 1.13913 0.0
Ar 5.5541 2.26157 0.0
Ar 5.62789 3.37462 0.0
Ar 5.56844 4.48491 0.0
Ar 5.62904 5.62681 0.0
Ar 5.55794 6.7168 0.0
Ar 5.62815 7.83788 0.0
Ar 6.67149 0.0140261 0.0
Ar 6.74887 1.1259 0.0
Ar 6.71873 2.21056 0.0
Ar 6.73666 3.37728 0.0
Ar 6.66946 4.51636 0.0
Ar 6.69907 5.59754 0.0
Ar 6.71573 6.70854 0.0
Ar 6.74264 7.8056 0.0
Ar 7.86702 8.92625 0.0
Ar 7.79893 1.08184 0.0
Ar 7.83113 2.25313 0.0
Ar 7.79643 3.34319 0.0
Ar 7.84712 4.44828 0.0
Ar 7.79782 5.58094 0.0
Ar 7.83762 6.73821 0.0
Ar 7.822 7.78171 0.0
