64
Pas 60
Ar 0.0957125 8.9362 0.0
Ar 0.0738077 1.10703 0.0
Ar 8.92488 2.18019 0.0
Ar 8.91941 3.27987 0.0
Ar 0.0810364 4.50484 0.0
Ar 8.91805 5.58211 0.0
Ar 8.9047 6.80661 0.0
Ar 0.00542273 7.84611 0.0
Ar 1.15314 8.92653 0.0
Ar 1.2326 1.05943 0.0
Ar 1.04189 2.12771 0.0
Ar 1.04013 3.24901 0.0
Ar 1.15001 4.51592 0.0
Ar 1.22553 5.67055 0.0
Ar 1.08623 6.81384 0.0
Ar 1.0904 7.86264 0.0
Ar 2.20492 0.136438 0.0
Ar 2.35527 1.17954 0.0
Ar 2.13959 2.22641 0.0
Ar 2.24564 3.33576 0.0
Ar 2.22025 4.44583 0.0
Ar 2.36024 5.50878 0.0
Ar 2.1305 6.69273 0.0
Ar 2.32156 7.8213 0.0
Ar 3.28342 8.84457 0.0
Ar 3.44876 1.05692 0.0
Ar 3.20708 2.13996 0.0
Ar 3.33954 3.37088 0.0
Ar 3.29324 4.52576 0.0
Ar 3.52925 5.63189 0.0
Ar 3.21695 6.68897 0.0
Ar 3.44508 7.80608 0.0
Ar 4.3873 8.83433 0.0
Ar 4.53499 1.11264 0.0
Ar 4.31286 2.17182 0.0
Ar 4.62054 3.37126 0.0
Ar 4.32653 4.50231 0.0
Ar 4.61823 5.56478 0.0
Ar 4.29994 6.64203 0.0
Ar 4.65728 7.71586 0.0
Ar 5.4473 0.0702351 0.0
Ar 5.64201 1.21321 0.0
Ar 5.45296 2.35936 0.0
Ar 5.65323 3.47816 0.0
Ar 5.41023 4.60686 0.0
Ar 5.68335 5.69329 0.0
Ar 5.4417 6.81883 0.0
Ar 5.70097 7.89106 0.0
Ar 6.62019 8.92399 0.0
Ar 6.69001 1.10045 0.0
Ar 6.67141 2.28278 0.0
Ar 6.75836 3.46026 0.0
Ar 6.58832 4.55138 0.0
Ar 6.75742 5.65821 0.0
Ar 6.68757 6.74865 0.0
Ar 6.76598 7.84317 0.0
Ar 7.79547 8.84683 0.0
Ar 7.92825 1.01344 0.0
Ar 7.82096 2.15969 0.0
Ar 7.86419 3.30651 0.0
Ar 7.88283 4.43012 0.0
Ar 7.84263 5.51592 0.0
Ar 7.81968 6.58462 0.0
Ar 7.84978 7.7528 0.0
