64
Pas 0
Ar 8.93947 0.00141497 0.0
Ar 0.000830905 1.1194 0.0
Ar 8.9402 2.23345 0.0
Ar 8.94264 3.3511 0.0
Ar 0.00520214 4.46782 0.0
Ar 8.94128 5.58761 0.0
Ar 8.93796 6.70358 0.0
Ar 0.00284378 7.83307 0.0
Ar 1.12197 0.00615992 0.0
Ar 1.12345 1.11233 0.0
Ar 1.11844 2.23459 0.0
Ar 1.11191 3.35544 0.0
Ar 1.12329 4.47147 0.0
Ar 1.11758 5.59301 0.0
Ar 1.11447 6.70894 0.0
Ar 1.12276 7.82866 0.0
Ar 2.23837 8.94336 0.0
Ar 2.23684 1.11917 0.0
Ar 2.2341 2.23516 0.0
Ar 2.23279 3.35299 0.0
Ar 2.2353 4.47635 0.0
Ar 2.24061 5.59189 0.0
Ar 2.23284 6.70378 0.0
Ar 2.23108 7.82789 0.0
Ar 3.35376 8.94178 0.0
Ar 3.3586 1.12288 0.0
Ar 3.35108 2.23669 0.0
Ar 3.3552 3.35196 0.0
Ar 3.35717 4.46713 0.0
Ar 3.35305 5.59494 0.0
Ar 3.35094 6.70781 0.0
Ar 3.3574 7.82271 0.0
Ar 4.46859 8.93829 0.0
Ar 4.47753 1.11567 0.0
Ar 4.47549 2.23413 0.0
Ar 4.46743 3.35254 0.0
Ar 4.47748 4.47208 0.0
Ar 4.4781 5.59397 0.0
Ar 4.47603 6.71247 0.0
Ar 4.47481 7.82035 0.0
Ar 5.58886 0.00315178 0.0
Ar 5.59382 1.11988 0.0
Ar 5.58727 2.23668 0.0
Ar 5.59203 3.35495 0.0
Ar 5.58471 4.46829 0.0
Ar 5.58688 5.59568 0.0
Ar 5.59644 6.71465 0.0
Ar 5.59145 7.82567 0.0
Ar 6.70201 0.00514152 0.0
Ar 6.70777 1.11894 0.0
Ar 6.70602 2.23733 0.0
Ar 6.7103 3.35463 0.0
Ar 6.70744 4.46682 0.0
Ar 6.70287 5.59114 0.0
Ar 6.70885 6.71184 0.0
Ar 6.71362 7.82346 0.0
Ar 7.82997 0.00532661 0.0
Ar 7.82142 1.11678 0.0
Ar 7.82838 2.23369 0.0
Ar 7.82819 3.35023 0.0
Ar 7.82598 4.46932 0.0
Ar 7.82634 5.58952 0.0
Ar 7.8199 6.71022 0.0
Ar 7.82159 7.82505 0.0
64
Pas 10
Ar 8.89749 0.0178173 0.0
Ar 0.00894787 1.13146 0.0
Ar 8.90328 2.20883 0.0
Ar 8.92577 3.32062 0.0
Ar 0.0560788 4.4254 0.0
Ar 8.91332 5.56068 0.0
Ar 8.87554 6.66016 0.0
Ar 0.0301765 7.89689 0.0
Ar 1.15886 0.0594438 0.0
Ar 1.17473 1.0636 0.0
Ar 1.12048 2.21946 0.0
Ar 1.05303 3.36756 0.0
Ar 1.17339 4.46629 0.0
Ar 1.11372 5.61969 0.0
Ar 1.07814 6.71776 0.0
Ar 1.16436 7.85349 0.0
Ar 2.26074 8.93576 0.0
Ar 2.24739 1.12929 0.0
Ar 2.21494 2.22665 0.0
Ar 2.20027 3.34332 0.0
Ar 2.23134 4.5164 0.0
Ar 2.28254 5.60741 0.0
Ar 2.2003 6.66357 0.0
Ar 2.18834 7.84202 0.0
Ar 3.35007 8.91823 0.0
Ar 3.40297 1.16808 0.0
Ar 3.32257 2.24363 0.0
Ar 3.36247 3.33042 0.0
Ar 3.3875 4.42006 0.0
Ar 3.34647 5.63849 0.0
Ar 3.3208 6.70487 0.0
Ar 3.38859 7.78906 0.0
Ar 4.43497 8.87927 0.0
Ar 4.53079 1.09098 0.0
Ar 4.50463 2.21462 0.0
Ar 4.42444 3.33739 0.0
Ar 4.52412 4.4721 0.0
Ar 4.53116 5.63094 0.0
Ar 4.51409 6.74935 0.0
Ar 4.50132 7.76704 0.0
Ar 5.57283 0.0334216 0.0
Ar 5.62955 1.13847 0.0
Ar 5.56122 2.24325 0.0
Ar 5.60926 3.36157 0.0
Ar 5.53741 4.43362 0.0
Ar 5.55801 5.64932 0.0
Ar 5.65603 6.77559 0.0
Ar 5.60574 7.82419 0.0
Ar 6.64413 0.0532363 0.0
Ar 6.70342 1.12979 0.0
Ar 6.68504 2.2495 0.0
Ar 6.73127 3.35765 0.0
Ar 6.69859 4.41767 0.0
Ar 6.65164 5.60027 0.0
Ar 6.71433 6.74469 0.0
Ar 6.76113 7.79997 0.0
Ar 7.86112 0.0542256 0.0
Ar 7.77632 1.10676 0.0
Ar 7.84596 2.2097 0.0
Ar 7.8463 3.31228 0.0
Ar 7.82463 4.4414 0.0
Ar 7.82489 5.58337 0.0
Ar 7.75958 6.72843 0.0
Ar 7.78244 7.81598 0.0
64
Pas 20
Ar 8.88632 0.0450152 0.0
Ar 0.0169182 1.1353 0.0
Ar 8.88556 2.19261 0.0
Ar 8.90621 3.28858 0.0
Ar 0.103009 4.38596 0.0
Ar 8.89447 5.52786 0.0
Ar 8.81612 6.62498 0.0
Ar 0.0546794 7.94261 0.0
Ar 1.18676 0.0597023 0.0
Ar 1.21314 1.06783 0.0
Ar 1.11379 2.20386 0.0
Ar 1.00682 3.37563 0.0
Ar 1.20889 4.46576 0.0
Ar 1.11234 5.63926 0.0
Ar 1.03917 6.73288 0.0
Ar 1.17036 7.88002 0.0
Ar 2.2789 8.93441 0.0
Ar 2.27152 1.1341 0.0
Ar 2.19846 2.22118 0.0
Ar 2.16849 3.33884 0.0
Ar 2.24668 4.54742 0.0
Ar 2.30861 5.61274 0.0
Ar 2.16567 6.64317 0.0
Ar 2.18557 7.84664 0.0
Ar 3.34539 8.89895 0.0
Ar 3.44611 1.19941 0.0
Ar 3.29955 2.25288 0.0
Ar 3.35134 3.30951 0.0
Ar 3.41621 4.38406 0.0
Ar 3.3584 5.66391 0.0
Ar 3.29444 6.70778 0.0
Ar 3.41484 7.76433 0.0
Ar 4.41051 8.82442 0.0
Ar 4.58012 1.06222 0.0
Ar 4.51176 2.1943 0.0
Ar 4.40076 3.3244 0.0
Ar 4.52722 4.47529 0.0
Ar 4.54604 5.6625 0.0
Ar 4.55043 6.74687 0.0
Ar 4.5267 7.7518 0.0
Ar 5.5424 0.0588904 0.0
Ar 5.65939 1.15762 0.0
Ar 5.55169 2.25188 0.0
Ar 5.62305 3.35844 0.0
Ar 5.53526 4.4132 0.0
Ar 5.55639 5.70021 0.0
Ar 5.69703 6.81627 0.0
Ar 5.62452 7.84597 0.0
Ar 6.60235 0.0880422 0.0
Ar 6.69985 1.14964 0.0
Ar 6.66716 2.25954 0.0
Ar 6.75229 3.3476 0.0
Ar 6.68575 4.38803 0.0
Ar 6.6104 5.60778 0.0
Ar 6.71252 6.75823 0.0
Ar 6.76926 7.79657 0.0
Ar 7.86172 0.0820849 0.0
Ar 7.74524 1.11088 0.0
Ar 7.84359 2.18555 0.0
Ar 7.85612 3.2778 0.0
Ar 7.82737 4.41418 0.0
Ar 7.81319 5.57883 0.0
Ar 7.72096 6.73786 0.0
Ar 7.78522 7.81835 0.0
64
Pas 30
Ar 8.91108 0.0832458 0.0
Ar 0.0257086 1.13007 0.0
Ar 8.89275 2.1881 0.0
Ar 8.8853 3.25686 0.0
Ar 0.14394 4.34956 0.0
Ar 8.88797 5.48764 0.0
Ar 8.76459 6.59694 0.0
Ar 0.0739451 7.96512 0.0
Ar 1.20268 0.0130134 0.0
Ar 1.23371 1.12066 0.0
Ar 1.09487 2.19129 0.0
Ar 0.982467 3.38043 0.0
Ar 1.2246 4.46979 0.0
Ar 1.11406 5.64988 0.0
Ar 0.996617 6.75621 0.0
Ar 1.13906 7.90399 0.0
Ar 2.28796 8.94112 0.0
Ar 2.3154 1.13169 0.0
Ar 2.18528 2.22043 0.0
Ar 2.13738 3.34081 0.0
Ar 2.28933 4.56131 0.0
Ar 2.31537 5.6075 0.0
Ar 2.12705 6.65114 0.0
Ar 2.22799 7.83923 0.0
Ar 3.34103 8.88418 0.0
Ar 3.48954 1.21155 0.0
Ar 3.2822 2.25922 0.0
Ar 3.31607 3.29537 0.0
Ar 3.43913 4.36246 0.0
Ar 3.39466 5.66325 0.0
Ar 3.26885 6.71703 0.0
Ar 3.43726 7.7571 0.0
Ar 4.39972 8.78361 0.0
Ar 4.62095 1.02771 0.0
Ar 4.48928 2.17181 0.0
Ar 4.40171 3.31449 0.0
Ar 4.48777 4.48276 0.0
Ar 4.51268 5.67785 0.0
Ar 4.58583 6.70464 0.0
Ar 4.5515 7.77338 0.0
Ar 5.49265 0.0794446 0.0
Ar 5.67467 1.17676 0.0
Ar 5.56303 2.26263 0.0
Ar 5.63463 3.34208 0.0
Ar 5.57946 4.41184 0.0
Ar 5.57873 5.75046 0.0
Ar 5.69693 6.83194 0.0
Ar 5.6466 7.89983 0.0
Ar 6.57959 0.106019 0.0
Ar 6.70126 1.1812 0.0
Ar 6.654 2.26487 0.0
Ar 6.77199 3.32159 0.0
Ar 6.67037 4.38573 0.0
Ar 6.59277 5.61221 0.0
Ar 6.7032 6.74364 0.0
Ar 6.73622 7.81935 0.0
Ar 7.82695 0.0791405 0.0
Ar 7.73812 1.13083 0.0
Ar 7.81475 2.16602 0.0
Ar 7.84883 3.24914 0.0
Ar 7.83401 4.38812 0.0
Ar 7.78882 5.57645 0.0
Ar 7.72203 6.7364 0.0
Ar 7.83401 7.8343 0.0
64
Pas 40
Ar 0.00428629 0.112132 0.0
Ar 0.0364229 1.13179 0.0
Ar 8.9102 2.18793 0.0
Ar 8.86925 3.2332 0.0
Ar 0.174929 4.31427 0.0
Ar 8.89004 5.44253 0.0
Ar 8.73787 6.57016 0.0
Ar 0.0765845 7.97102 0.0
Ar 1.20631 8.92325 0.0
Ar 1.24332 1.16989 0.0
Ar 1.06512 2.19381 0.0
Ar 0.979039 3.38366 0.0
Ar 1.23558 4.47872 0.0
Ar 1.11858 5.65424 0.0
Ar 0.950294 6.78489 0.0
Ar 1.11245 7.90599 0.0
Ar 2.28523 0.00900162 0.0
Ar 2.37348 1.12412 0.0
Ar 2.17262 2.22309 0.0
Ar 2.10737 3.34912 0.0
Ar 2.34826 4.54945 0.0
Ar 2.31163 5.60799 0.0
Ar 2.08532 6.67895 0.0
Ar 2.28477 7.82348 0.0
Ar 3.33967 8.87426 0.0
Ar 3.53477 1.2064 0.0
Ar 3.27037 2.25153 0.0
Ar 3.26722 3.29675 0.0
Ar 3.44203 4.35394 0.0
Ar 3.4388 5.64173 0.0
Ar 3.24008 6.72292 0.0
Ar 3.45819 7.77064 0.0
Ar 4.39688 8.78001 0.0
Ar 4.64707 0.986309 0.0
Ar 4.44963 2.14627 0.0
Ar 4.41561 3.30734 0.0
Ar 4.45819 4.49407 0.0
Ar 4.46456 5.65651 0.0
Ar 4.61854 6.67574 0.0
Ar 4.58068 7.77398 0.0
Ar 5.43357 0.100057 0.0
Ar 5.67432 1.19389 0.0
Ar 5.57734 2.27062 0.0
Ar 5.64529 3.3228 0.0
Ar 5.62458 4.42705 0.0
Ar 5.58058 5.79708 0.0
Ar 5.6554 6.84725 0.0
Ar 5.66473 7.97017 0.0
Ar 6.56746 0.111482 0.0
Ar 6.71209 1.21526 0.0
Ar 6.64782 2.26308 0.0
Ar 6.78364 3.29822 0.0
Ar 6.66395 4.40067 0.0
Ar 6.61346 5.60879 0.0
Ar 6.69722 6.71282 0.0
Ar 6.70209 7.85523 0.0
Ar 7.77866 0.0536207 0.0
Ar 7.75987 1.14102 0.0
Ar 7.77297 2.16517 0.0
Ar 7.82472 3.22829 0.0
Ar 7.84316 4.36386 0.0
Ar 7.75665 5.57567 0.0
Ar 7.74028 6.73128 0.0
Ar 7.8956 7.85799 0.0
64
Pas 50
Ar 0.0417951 0.110782 0.0
Ar 0.0498196 1.15369 0.0
Ar 8.92028 2.18456 0.0
Ar 8.85986 3.22637 0.0
Ar 0.193125 4.27923 0.0
Ar 8.89532 5.39593 0.0
Ar 8.75717 6.53747 0.0
Ar 0.0564268 7.96757 0.0
Ar 1.19783 8.92753 0.0
Ar 1.25361 1.19159 0.0
Ar 1.03172 2.22562 0.0
Ar 0.987242 3.38631 0.0
Ar 1.25652 4.4928 0.0
Ar 1.12482 5.65649 0.0
Ar 0.900994 6.81282 0.0
Ar 1.11292 7.87153 0.0
Ar 2.2734 0.0212726 0.0
Ar 2.43683 1.11718 0.0
Ar 2.15699 2.22629 0.0
Ar 2.08023 3.36308 0.0
Ar 2.40574 4.51705 0.0
Ar 2.30436 5.61973 0.0
Ar 2.04199 6.71499 0.0
Ar 2.34302 7.80536 0.0
Ar 3.33866 8.872 0.0
Ar 3.58176 1.18819 0.0
Ar 3.26371 2.22997 0.0
Ar 3.21374 3.30899 0.0
Ar 3.42014 4.35631 0.0
Ar 3.44787 5.6084 0.0
Ar 3.20699 6.72096 0.0
Ar 3.48017 7.79615 0.0
Ar 4.39025 8.80803 0.0
Ar 4.6526 0.939085 0.0
Ar 4.40468 2.11722 0.0
Ar 4.43208 3.30211 0.0
Ar 4.4634 4.50864 0.0
Ar 4.44767 5.60202 0.0
Ar 4.63147 6.66547 0.0
Ar 4.61473 7.74359 0.0
Ar 5.38468 0.129217 0.0
Ar 5.67108 1.20676 0.0
Ar 5.57751 2.26906 0.0
Ar 5.65554 3.31758 0.0
Ar 5.64204 4.45157 0.0
Ar 5.55955 5.82921 0.0
Ar 5.61502 6.88895 0.0
Ar 5.66522 8.04239 0.0
Ar 6.55719 0.11042 0.0
Ar 6.73297 1.23381 0.0
Ar 6.64821 2.25926 0.0
Ar 6.77406 3.2963 0.0
Ar 6.68587 4.42197 0.0
Ar 6.65561 5.59421 0.0
Ar 6.68665 6.68145 0.0
Ar 6.69449 7.89052 0.0
Ar 7.72839 0.0187631 0.0
Ar 7.80714 1.12374 0.0
Ar 7.7302 2.18317 0.0
Ar 7.80156 3.22051 0.0
Ar 7.85389 4.34242 0.0
Ar 7.72573 5.57528 0.0
Ar 7.73936 6.73205 0.0
Ar 7.95279 7.88149 0.0
64
Pas 60
Ar 0.0762006 0.0906041 0.0
Ar 0.0675245 1.17202 0.0
Ar 8.90656 2.18734 0.0
Ar 8.85537 3.23427 0.0
Ar 0.202897 4.24876 0.0
Ar 8.9009 5.3501 0.0
Ar 8.80243 6.49782 0.0
Ar 0.0441532 7.95614 0.0
Ar 1.17658 0.00952341 0.0
Ar 1.26825 1.19228 0.0
Ar 1.00963 2.27904 0.0
Ar 0.99524 3.39041 0.0
Ar 1.2886 4.50986 0.0
Ar 1.13121 5.65982 0.0
Ar 0.852601 6.82893 0.0
Ar 1.1376 7.82759 0.0
Ar 2.25754 0.0292673 0.0
Ar 2.50067 1.11592 0.0
Ar 2.13755 2.22827 0.0
Ar 2.0597 3.38137 0.0
Ar 2.42626 4.481 0.0
Ar 2.29516 5.63573 0.0
Ar 1.99712 6.75136 0.0
Ar 2.39947 7.78991 0.0
Ar 3.32927 8.88275 0.0
Ar 3.62581 1.16151 0.0
Ar 3.25862 2.20344 0.0
Ar 3.15948 3.31889 0.0
Ar 3.41818 4.36799 0.0
Ar 3.40331 5.56896 0.0
Ar 3.17014 6.71498 0.0
Ar 3.50669 7.81946 0.0
Ar 4.36932 8.82935 0.0
Ar 4.63954 0.90087 0.0
Ar 4.36098 2.08444 0.0
Ar 4.4479 3.29791 0.0
Ar 4.49168 4.51434 0.0
Ar 4.48153 5.54339 0.0
Ar 4.60241 6.64375 0.0
Ar 4.64697 7.71108 0.0
Ar 5.3708 0.170145 0.0
Ar 5.67478 1.21216 0.0
Ar 5.55909 2.26138 0.0
Ar 5.66283 3.33214 0.0
Ar 5.63298 4.4808 0.0
Ar 5.53391 5.84728 0.0
Ar 5.60989 6.96342 0.0
Ar 5.65117 8.10763 0.0
Ar 6.54376 0.106574 0.0
Ar 6.76442 1.22338 0.0
Ar 6.64541 2.26446 0.0
Ar 6.73946 3.31946 0.0
Ar 6.73468 4.44513 0.0
Ar 6.68541 5.56879 0.0
Ar 6.66282 6.65731 0.0
Ar 6.71667 7.92014 0.0
Ar 7.67721 8.92877 0.0
Ar 7.87066 1.09225 0.0
Ar 7.69555 2.19178 0.0
Ar 7.79257 3.23341 0.0
Ar 7.86678 4.32586 0.0
Ar 7.71341 5.57424 0.0
Ar 7.72798 6.73971 0.0
Ar 7.98341 7.89575 0.0
64
Pas 70
Ar 0.100788 0.0696161 0.0
Ar 0.0939235 1.165 0.0
Ar 8.86453 2.20322 0.0
Ar 8.85384 3.24513 0.0
Ar 0.213293 4.23374 0.0
Ar 8.90579 5.30701 0.0
Ar 8.83036 6.44745 0.0
Ar 0.0745136 7.93439 0.0
Ar 1.14992 0.0401087 0.0
Ar 1.28559 1.18747 0.0
Ar 1.00398 2.33477 0.0
Ar 0.992883 3.40204 0.0
Ar 1.32385 4.52644 0.0
Ar 1.1359 5.66611 0.0
Ar 0.820745 6.82584 0.0
Ar 1.18208 7.80538 0.0
Ar 2.23854 0.032314 0.0
Ar 2.56181 1.12134 0.0
Ar 2.11643 2.22876 0.0
Ar 2.04763 3.40134 0.0
Ar 2.39459 4.45035 0.0
Ar 2.28043 5.65242 0.0
Ar 1.95006 6.78374 0.0
Ar 2.45134 7.77977 0.0
Ar 3.30355 8.90916 0.0
Ar 3.64939 1.13297 0.0
Ar 3.24816 2.17679 0.0
Ar 3.10977 3.32229 0.0
Ar 3.46346 4.38524 0.0
Ar 3.34756 5.52588 0.0
Ar 3.12982 6.7086 0.0
Ar 3.54214 7.83392 0.0
Ar 4.34381 8.81996 0.0
Ar 4.62443 0.897122 0.0
Ar 4.32539 2.04859 0.0
Ar 4.46315 3.29412 0.0
Ar 4.53023 4.4853 0.0
Ar 4.5227 5.5094 0.0
Ar 4.5533 6.60486 0.0
Ar 4.67238 7.68853 0.0
Ar 5.39607 0.211001 0.0
Ar 5.68788 1.21094 0.0
Ar 5.52483 2.26008 0.0
Ar 5.65711 3.35957 0.0
Ar 5.61783 4.51303 0.0
Ar 5.51707 5.86495 0.0
Ar 5.6174 7.0529 0.0
Ar 5.64334 8.15742 0.0
Ar 6.52361 0.101909 0.0
Ar 6.80546 1.19234 0.0
Ar 6.6261 2.27678 0.0
Ar 6.70027 3.36005 0.0
Ar 6.79101 4.46703 0.0
Ar 6.68002 5.5377 0.0
Ar 6.62933 6.63992 0.0
Ar 6.75446 7.94446 0.0
Ar 7.62362 8.90312 0.0
Ar 7.93986 1.0586 0.0
Ar 7.67986 2.17879 0.0
Ar 7.78765 3.25957 0.0
Ar 7.88511 4.3194 0.0
Ar 7.73701 5.57247 0.0
Ar 7.72348 6.75047 0.0
Ar 7.96628 7.89351 0.0
64
Pas 80
Ar 0.0999579 0.0526262 0.0
Ar 0.133928 1.14486 0.0
Ar 8.80661 2.21338 0.0
Ar 8.85146 3.25205 0.0
Ar 0.23072 4.24178 0.0
Ar 8.9091 5.27012 0.0
Ar 8.81402 6.37877 0.0
Ar 0.127457 7.90007 0.0
Ar 1.13506 0.0687242 0.0
Ar 1.30493 1.1849 0.0
Ar 1.00271 2.37615 0.0
Ar 0.978129 3.43108 0.0
Ar 1.34486 4.54135 0.0
Ar 1.13667 5.67604 0.0
Ar 0.821632 6.81569 0.0
Ar 1.24476 7.80717 0.0
Ar 2.21271 0.0325176 0.0
Ar 2.611 1.13124 0.0
Ar 2.09707 2.22785 0.0
Ar 2.0352 3.41648 0.0
Ar 2.36393 4.42723 0.0
Ar 2.25359 5.67044 0.0
Ar 1.90305 6.81143 0.0
Ar 2.49576 7.77453 0.0
Ar 3.2668 0.00278195 0.0
Ar 3.63314 1.10825 0.0
Ar 3.22616 2.15149 0.0
Ar 3.07548 3.32236 0.0
Ar 3.5146 4.40287 0.0
Ar 3.30486 5.48196 0.0
Ar 3.08606 6.70306 0.0
Ar 3.58776 7.84337 0.0
Ar 4.33176 8.78531 0.0
Ar 4.63629 0.921258 0.0
Ar 4.30441 2.01193 0.0
Ar 4.47841 3.28991 0.0
Ar 4.57331 4.41811 0.0
Ar 4.54422 5.49579 0.0
Ar 4.50421 6.56341 0.0
Ar 4.68785 7.6736 0.0
Ar 5.43384 0.240098 0.0
Ar 5.71517 1.21976 0.0
Ar 5.47769 2.27086 0.0
Ar 5.62564 3.39257 0.0
Ar 5.6144 4.54866 0.0
Ar 5.52132 5.89217 0.0
Ar 5.61963 7.13705 0.0
Ar 5.65383 8.18748 0.0
Ar 6.49522 0.0971882 0.0
Ar 6.85339 1.15721 0.0
Ar 6.59105 2.28868 0.0
Ar 6.67855 3.40667 0.0
Ar 6.84337 4.48123 0.0
Ar 6.64979 5.51334 0.0
Ar 6.59442 6.6256 0.0
Ar 6.79816 7.96446 0.0
Ar 7.56839 8.89043 0.0
Ar 8.00491 1.02548 0.0
Ar 7.6821 2.15223 0.0
Ar 7.77488 3.27829 0.0
Ar 7.91537 4.33088 0.0
Ar 7.78377 5.5703 0.0
Ar 7.7249 6.76106 0.0
Ar 7.92729 7.87454 0.0
64
Pas 90
Ar 0.0668222 0.0353381 0.0
Ar 0.190319 1.12748 0.0
Ar 8.74733 2.20255 0.0
Ar 8.84483 3.25848 0.0
Ar 0.254065 4.26253 0.0
Ar 8.90907 5.24611 0.0
Ar 8.77176 6.30208 0.0
Ar 0.182581 7.85609 0.0
Ar 1.13452 0.0935344 0.0
Ar 1.32751 1.18824 0.0
Ar 0.995383 2.39754 0.0
Ar 0.957503 3.47819 0.0
Ar 1.33223 4.55715 0.0
Ar 1.12974 5.68921 0.0
Ar 0.829001 6.80505 0.0
Ar 1.32015 7.82227 0.0
Ar 2.17964 0.0314186 0.0
Ar 2.61741 1.14321 0.0
Ar 2.08183 2.2253 0.0
Ar 2.01023 3.41694 0.0
Ar 2.37478 4.41802 0.0
Ar 2.21588 5.69104 0.0
Ar 1.86785 6.83495 0.0
Ar 2.53163 7.77254 0.0
Ar 3.23645 0.0445954 0.0
Ar 3.61672 1.08332 0.0
Ar 3.19376 2.12892 0.0
Ar 3.06525 3.32117 0.0
Ar 3.5497 4.41217 0.0
Ar 3.27749 5.44353 0.0
Ar 3.03898 6.69826 0.0
Ar 3.6371 7.8535 0.0
Ar 4.33311 8.74352 0.0
Ar 4.66963 0.955454 0.0
Ar 4.29713 1.97872 0.0
Ar 4.49191 3.28031 0.0
Ar 4.61439 4.33614 0.0
Ar 4.54489 5.47088 0.0
Ar 4.45871 6.53479 0.0
Ar 4.69033 7.66593 0.0
Ar 5.45314 0.256576 0.0
Ar 5.76118 1.25515 0.0
Ar 5.41988 2.29241 0.0
Ar 5.57353 3.42824 0.0
Ar 5.63683 4.59058 0.0
Ar 5.54661 5.93077 0.0
Ar 5.62428 7.19015 0.0
Ar 5.6829 8.20681 0.0
Ar 6.46605 0.0919574 0.0
Ar 6.90615 1.12611 0.0
Ar 6.55084 2.29745 0.0
Ar 6.67129 3.44765 0.0
Ar 6.88934 4.48495 0.0
Ar 6.61001 5.50612 0.0
Ar 6.56205 6.61266 0.0
Ar 6.83898 7.98064 0.0
Ar 7.51778 8.88887 0.0
Ar 8.05888 0.992505 0.0
Ar 7.68709 2.11909 0.0
Ar 7.75345 3.28104 0.0
Ar 7.96389 4.36056 0.0
Ar 7.83505 5.56801 0.0
Ar 7.72665 6.76719 0.0
Ar 7.89326 7.84617 0.0
