64
Pas 60
Ar 0.0762006 0.0906041 0.0
Ar 0.0675245 1.17202 0.0
Ar 8.90656 2.18734 0.0
Ar 8.85537 3.23427 0.0
Ar 0.202897 4.24876 0.0
Ar 8.9009 5.3501 0.0
Ar 8.80243 6.49782 0.0
Ar 0.0441532 7.95614 0.0
Ar 1.17658 0.00952341 0.0
Ar 1.26825 1.19228 0.0
Ar 1.00963 2.27904 0.0
Ar 0.99524 3.39041 0.0
Ar 1.2886 4.50986 0.0
Ar 1.13121 5.65982 0.0
Ar 0.852601 6.82893 0.0
Ar 1.1376 7.82759 0.0
Ar 2.25754 0.0292673 0.0
Ar 2.50067 1.11592 0.0
Ar 2.13755 2.22827 0.0
Ar 2.0597 3.38137 0.0
Ar 2.42626 4.481 0.0
Ar 2.29516 5.63573 0.0
Ar 1.99712 6.75136 0.0
Ar 2.39947 7.78991 0.0
Ar 3.32927 8.88275 0.0
Ar 3.62581 1.16151 0.0
Ar 3.25862 2.20344 0.0
Ar 3.15948 3.31889 0.0
Ar 3.41818 4.36799 0.0
Ar 3.40331 5.56896 0.0
Ar 3.17014 6.71498 0.0
Ar 3.50669 7.81946 0.0
Ar 4.36932 8.82935 0.0
Ar 4.63954 0.90087 0.0
Ar 4.36098 2.08444 0.0
Ar 4.4479 3.29791 0.0
Ar 4.49168 4.51434 0.0
Ar 4.48153 5.54339 0.0
Ar 4.60241 6.64375 0.0
Ar 4.64697 7.71108 0.0
Ar 5.3708 0.170145 0.0
Ar 5.67478 1.21216 0.0
Ar 5.55909 2.26138 0.0
Ar 5.66283 3.33214 0.0
Ar 5.63298 4.4808 0.0
Ar 5.53391 5.84728 0.0
Ar 5.60989 6.96342 0.0
Ar 5.65117 8.10763 0.0
Ar 6.54376 0.106574 0.0
Ar 6.76442 1.22338 0.0
Ar 6.64541 2.26446 0.0
Ar 6.73946 3.31946 0.0
Ar 6.73468 4.44513 0.0
Ar 6.68541 5.56879 0.0
Ar 6.66282 6.65731 0.0
Ar 6.71667 7.92014 0.0
Ar 7.67721 8.92877 0.0
Ar 7.87066 1.09225 0.0
Ar 7.69555 2.19178 0.0
Ar 7.79257 3.23341 0.0
Ar 7.86678 4.32586 0.0
Ar 7.71341 5.57424 0.0
Ar 7.72798 6.73971 0.0
Ar 7.98341 7.89575 0.0
