64
Pas 80
Ar 0.0999579 0.0526262 0.0
Ar 0.133928 1.14486 0.0
Ar 8.80661 2.21338 0.0
Ar 8.85146 3.25205 0.0
Ar 0.23072 4.24178 0.0
Ar 8.9091 5.27012 0.0
Ar 8.81402 6.37877 0.0
Ar 0.127457 7.90007 0.0
Ar 1.13506 0.0687242 0.0
Ar 1.30493 1.1849 0.0
Ar 1.00271 2.37615 0.0
Ar 0.978129 3.43108 0.0
Ar 1.34486 4.54135 0.0
Ar 1.13667 5.67604 0.0
Ar 0.821632 6.81569 0.0
Ar 1.24476 7.80717 0.0
Ar 2.21271 0.0325176 0.0
Ar 2.611 1.13124 0.0
Ar 2.09707 2.22785 0.0
Ar 2.0352 3.41648 0.0
Ar 2.36393 4.42723 0.0
Ar 2.25359 5.67044 0.0
Ar 1.90305 6.81143 0.0
Ar 2.49576 7.77453 0.0
Ar 3.2668 0.00278195 0.0
Ar 3.63314 1.10825 0.0
Ar 3.22616 2.15149 0.0
Ar 3.07548 3.32236 0.0
Ar 3.5146 4.40287 0.0
Ar 3.30486 5.48196 0.0
Ar 3.08606 6.70306 0.0
Ar 3.58776 7.84337 0.0
Ar 4.33176 8.78531 0.0
Ar 4.63629 0.921258 0.0
Ar 4.30441 2.01193 0.0
Ar 4.47841 3.28991 0.0
Ar 4.57331 4.41811 0.0
Ar 4.54422 5.49579 0.0
Ar 4.50421 6.56341 0.0
Ar 4.68785 7.6736 0.0
Ar 5.43384 0.240098 0.0
Ar 5.71517 1.21976 0.0
Ar 5.47769 2.27086 0.0
Ar 5.62564 3.39257 0.0
Ar 5.6144 4.54866 0.0
Ar 5.52132 5.89217 0.0
Ar 5.61963 7.13705 0.0
Ar 5.65383 8.18748 0.0
Ar 6.49522 0.0971882 0.0
Ar 6.85339 1.15721 0.0
Ar 6.59105 2.28868 0.0
Ar 6.67855 3.40667 0.0
Ar 6.84337 4.48123 0.0
Ar 6.64979 5.51334 0.0
Ar 6.59442 6.6256 0.0
Ar 6.79816 7.96446 0.0
Ar 7.56839 8.89043 0.0
Ar 8.00491 1.02548 0.0
Ar 7.6821 2.15223 0.0
Ar 7.77488 3.27829 0.0
Ar 7.91537 4.33088 0.0
Ar 7.78377 5.5703 0.0
Ar 7.7249 6.76106 0.0
Ar 7.92729 7.87454 0.0
