64
Pas 40
Ar 0.00428629 0.112132 0.0
Ar 0.0364229 1.13179 0.0
Ar 8.9102 2.18793 0.0
Ar 8.86925 3.2332 0.0
Ar 0.174929 4.31427 0.0
Ar 8.89004 5.44253 0.0
Ar 8.73787 6.57016 0.0
Ar 0.0765845 7.97102 0.0
Ar 1.20631 8.92325 0.0
Ar 1.24332 1.16989 0.0
Ar 1.06512 2.19381 0.0
Ar 0.979039 3.38366 0.0
Ar 1.23558 4.47872 0.0
Ar 1.11858 5.65424 0.0
Ar 0.950294 6.78489 0.0
Ar 1.11245 7.90599 0.0
Ar 2.28523 0.00900162 0.0
Ar 2.37348 1.12412 0.0
Ar 2.17262 2.22309 0.0
Ar 2.10737 3.34912 0.0
Ar 2.34826 4.54945 0.0
Ar 2.31163 5.60799 0.0
Ar 2.08532 6.67895 0.0
Ar 2.28477 7.82348 0.0
Ar 3.33967 8.87426 0.0
Ar 3.53477 1.2064 0.0
Ar 3.27037 2.25153 0.0
Ar 3.26722 3.29675 0.0
Ar 3.44203 4.35394 0.0
Ar 3.4388 5.64173 0.0
Ar 3.24008 6.72292 0.0
Ar 3.45819 7.77064 0.0
Ar 4.39688 8.78001 0.0
Ar 4.64707 0.986309 0.0
Ar 4.44963 2.14627 0.0
Ar 4.41561 3.30734 0.0
Ar 4.45819 4.49407 0.0
Ar 4.46456 5.65651 0.0
Ar 4.61854 6.67574 0.0
Ar 4.58068 7.77398 0.0
Ar 5.43357 0.100057 0.0
Ar 5.67432 1.19389 0.0
Ar 5.57734 2.27062 0.0
Ar 5.64529 3.3228 0.0
Ar 5.62458 4.42705 0.0
Ar 5.58058 5.79708 0.0
Ar 5.6554 6.84725 0.0
Ar 5.66473 7.97017 0.0
Ar 6.56746 0.111482 0.0
Ar 6.71209 1.21526 0.0
Ar 6.64782 2.26308 0.0
Ar 6.78364 3.29822 0.0
Ar 6.66395 4.40067 0.0
Ar 6.61346 5.60879 0.0
Ar 6.69722 6.71282 0.0
Ar 6.70209 7.85523 0.0
Ar 7.77866 0.0536207 0.0
Ar 7.75987 1.14102 0.0
Ar 7.77297 2.16517 0.0
Ar 7.82472 3.22829 0.0
Ar 7.84316 4.36386 0.0
Ar 7.75665 5.57567 0.0
Ar 7.74028 6.73128 0.0
Ar 7.8956 7.85799 0.0
