64
Pas 0
Ar 8.93947 0.00141497 0.0
Ar 0.000830905 1.1194 0.0
Ar 8.9402 2.23345 0.0
Ar 8.94264 3.3511 0.0
Ar 0.00520214 4.46782 0.0
Ar 8.94128 5.58761 0.0
Ar 8.93796 6.70358 0.0
Ar 0.00284378 7.83307 0.0
Ar 1.12197 0.00615992 0.0
Ar 1.12345 1.11233 0.0
Ar 1.11844 2.23459 0.0
Ar 1.11191 3.35544 0.0
Ar 1.12329 4.47147 0.0
Ar 1.11758 5.59301 0.0
Ar 1.11447 6.70894 0.0
Ar 1.12276 7.82866 0.0
Ar 2.23837 8.94336 0.0
Ar 2.23684 1.11917 0.0
Ar 2.2341 2.23516 0.0
Ar 2.23279 3.35299 0.0
Ar 2.2353 4.47635 0.0
Ar 2.24061 5.59189 0.0
Ar 2.23284 6.70378 0.0
Ar 2.23108 7.82789 0.0
Ar 3.35376 8.94178 0.0
Ar 3.3586 1.12288 0.0
Ar 3.35108 2.23669 0.0
Ar 3.3552 3.35196 0.0
Ar 3.35717 4.46713 0.0
Ar 3.35305 5.59494 0.0
Ar 3.35094 6.70781 0.0
Ar 3.3574 7.82271 0.0
Ar 4.46859 8.93829 0.0
Ar 4.47753 1.11567 0.0
Ar 4.47549 2.23413 0.0
Ar 4.46743 3.35254 0.0
Ar 4.47748 4.47208 0.0
Ar 4.4781 5.59397 0.0
Ar 4.47603 6.71247 0.0
Ar 4.47481 7.82035 0.0
Ar 5.58886 0.00315178 0.0
Ar 5.59382 1.11988 0.0
Ar 5.58727 2.23668 0.0
Ar 5.59203 3.35495 0.0
Ar 5.58471 4.46829 0.0
Ar 5.58688 5.59568 0.0
Ar 5.59644 6.71465 0.0
Ar 5.59145 7.82567 0.0
Ar 6.70201 0.00514152 0.0
Ar 6.70777 1.11894 0.0
Ar 6.70602 2.23733 0.0
Ar 6.7103 3.35463 0.0
Ar 6.70744 4.46682 0.0
Ar 6.70287 5.59114 0.0
Ar 6.70885 6.71184 0.0
Ar 6.71362 7.82346 0.0
Ar 7.82997 0.00532661 0.0
Ar 7.82142 1.11678 0.0
Ar 7.82838 2.23369 0.0
Ar 7.82819 3.35023 0.0
Ar 7.82598 4.46932 0.0
Ar 7.82634 5.58952 0.0
Ar 7.8199 6.71022 0.0
Ar 7.82159 7.82505 0.0
