64
Pas 80
Ar 0.116781 8.80264 0.0
Ar 8.8811 0.985623 0.0
Ar 0.35344 2.00893 0.0
Ar 0.0717241 3.27544 0.0
Ar 0.214956 4.50441 0.0
Ar 8.47738 5.59193 0.0
Ar 8.696 6.6466 0.0
Ar 0.083426 7.76537 0.0
Ar 0.966455 0.490742 0.0
Ar 1.30813 1.58481 0.0
Ar 1.15599 2.81621 0.0
Ar 1.02727 3.80443 0.0
Ar 1.16378 4.92566 0.0
Ar 0.784697 5.89199 0.0
Ar 0.895698 6.9935 0.0
Ar 1.14978 8.25495 0.0
Ar 2.00054 0.0911361 0.0
Ar 2.31692 1.32461 0.0
Ar 2.5776 2.45845 0.0
Ar 2.09319 3.40374 0.0
Ar 2.51731 4.50939 0.0
Ar 1.85202 5.71776 0.0
Ar 1.9098 7.01426 0.0
Ar 2.41901 7.97964 0.0
Ar 3.33559 8.68772 0.0
Ar 3.27837 0.914163 0.0
Ar 3.75668 2.06085 0.0
Ar 3.17268 3.47345 0.0
Ar 3.60178 4.47881 0.0
Ar 2.95741 5.50187 0.0
Ar 3.07742 6.67404 0.0
Ar 3.57469 7.67317 0.0
Ar 4.56446 0.0772673 0.0
Ar 4.38992 1.14417 0.0
Ar 5.00724 2.13603 0.0
Ar 4.30786 3.12275 0.0
Ar 4.76777 4.16378 0.0
Ar 4.04213 5.51776 0.0
Ar 4.23789 6.86005 0.0
Ar 4.87796 7.84218 0.0
Ar 5.63641 8.54372 0.0
Ar 5.5968 0.701374 0.0
Ar 6.13412 2.28631 0.0
Ar 5.4587 3.23754 0.0
Ar 5.93476 4.24092 0.0
Ar 5.11702 5.26226 0.0
Ar 5.48206 6.34866 0.0
Ar 5.84895 7.35928 0.0
Ar 6.6427 0.098466 0.0
Ar 6.59834 1.19921 0.0
Ar 7.18121 2.34511 0.0
Ar 6.49412 3.36246 0.0
Ar 6.94483 4.49516 0.0
Ar 6.30754 5.50911 0.0
Ar 6.68131 6.6622 0.0
Ar 6.79552 7.8794 0.0
Ar 7.80802 8.81274 0.0
Ar 7.65298 1.30363 0.0
Ar 8.28464 2.2208 0.0
Ar 7.81146 3.21921 0.0
Ar 7.98742 4.23513 0.0
Ar 7.31059 5.54653 0.0
Ar 7.65695 6.59063 0.0
Ar 7.92311 7.58656 0.0
