64
Pas 90
Ar 0.0189073 8.79811 0.0
Ar 8.85609 1.01728 0.0
Ar 0.343514 1.99532 0.0
Ar 0.0350316 3.33115 0.0
Ar 0.117029 4.55135 0.0
Ar 8.46535 5.65378 0.0
Ar 8.76298 6.77175 0.0
Ar 0.0782342 7.73755 0.0
Ar 0.977924 0.555817 0.0
Ar 1.34618 1.64784 0.0
Ar 1.14793 2.73622 0.0
Ar 0.988685 3.86895 0.0
Ar 1.14766 4.89297 0.0
Ar 0.620859 5.89952 0.0
Ar 0.810577 6.94573 0.0
Ar 1.14607 8.29985 0.0
Ar 2.067 0.0978911 0.0
Ar 2.36366 1.3839 0.0
Ar 2.61297 2.544 0.0
Ar 1.99832 3.45414 0.0
Ar 2.44423 4.51076 0.0
Ar 1.88316 5.64263 0.0
Ar 1.96876 7.14597 0.0
Ar 2.49711 8.07225 0.0
Ar 3.38248 8.761 0.0
Ar 3.38845 0.8461 0.0
Ar 3.80628 2.05927 0.0
Ar 3.25085 3.38649 0.0
Ar 3.6094 4.54196 0.0
Ar 2.91495 5.47539 0.0
Ar 3.08426 6.59371 0.0
Ar 3.60991 7.67974 0.0
Ar 4.56214 0.0173106 0.0
Ar 4.44842 1.14351 0.0
Ar 4.99252 2.14654 0.0
Ar 4.42047 3.0499 0.0
Ar 4.80385 4.04343 0.0
Ar 4.04067 5.54225 0.0
Ar 4.26452 6.81267 0.0
Ar 4.83097 7.74777 0.0
Ar 5.69722 8.54331 0.0
Ar 5.57794 0.644105 0.0
Ar 6.13982 2.40336 0.0
Ar 5.44605 3.26544 0.0
Ar 5.8651 4.31092 0.0
Ar 5.13484 5.23398 0.0
Ar 5.44595 6.3503 0.0
Ar 5.79782 7.35557 0.0
Ar 6.61322 0.108709 0.0
Ar 6.4995 1.19929 0.0
Ar 7.19103 2.28632 0.0
Ar 6.5923 3.31719 0.0
Ar 6.93908 4.47192 0.0
Ar 6.21536 5.46361 0.0
Ar 6.59035 6.57365 0.0
Ar 6.70344 7.88818 0.0
Ar 7.82621 8.80113 0.0
Ar 7.70459 1.33257 0.0
Ar 8.24786 2.21119 0.0
Ar 7.80104 3.14423 0.0
Ar 8.07445 4.23746 0.0
Ar 7.38184 5.43613 0.0
Ar 7.73314 6.53409 0.0
Ar 7.94591 7.70225 0.0
