64
Pas 30
Ar 8.89132 8.84102 0.0
Ar 0.204448 0.991146 0.0
Ar 0.142588 2.14383 0.0
Ar 0.0269185 3.2574 0.0
Ar 0.0799903 4.37721 0.0
Ar 8.82426 5.56367 0.0
Ar 8.93766 6.64325 0.0
Ar 0.12958 7.75354 0.0
Ar 0.91042 0.286516 0.0
Ar 1.21466 1.32974 0.0
Ar 1.31345 2.48001 0.0
Ar 1.06864 3.53918 0.0
Ar 1.26961 4.64037 0.0
Ar 1.13188 5.79942 0.0
Ar 1.05091 6.94734 0.0
Ar 1.18786 8.147 0.0
Ar 1.91735 8.92483 0.0
Ar 2.22726 1.02014 0.0
Ar 2.36358 2.08094 0.0
Ar 2.12862 3.3364 0.0
Ar 2.3769 4.51623 0.0
Ar 2.19509 5.76538 0.0
Ar 2.1842 6.8318 0.0
Ar 2.33118 7.90097 0.0
Ar 3.23766 8.84548 0.0
Ar 3.30333 1.08596 0.0
Ar 3.5239 2.14057 0.0
Ar 3.2474 3.52578 0.0
Ar 3.50486 4.51244 0.0
Ar 3.20273 5.61215 0.0
Ar 3.25208 6.67593 0.0
Ar 3.41603 7.74041 0.0
Ar 4.6229 0.0285851 0.0
Ar 4.4015 1.14499 0.0
Ar 4.68126 2.23226 0.0
Ar 4.25954 3.31156 0.0
Ar 4.52188 4.32203 0.0
Ar 4.2926 5.59033 0.0
Ar 4.29587 6.67254 0.0
Ar 4.52168 7.87839 0.0
Ar 5.74312 8.937 0.0
Ar 5.53992 1.05959 0.0
Ar 5.71783 2.08042 0.0
Ar 5.39743 3.19606 0.0
Ar 5.62338 4.35573 0.0
Ar 5.37494 5.42928 0.0
Ar 5.39772 6.64342 0.0
Ar 5.57871 7.71051 0.0
Ar 6.80541 0.110841 0.0
Ar 6.76401 1.18961 0.0
Ar 6.81351 2.22667 0.0
Ar 6.79385 3.33582 0.0
Ar 6.75576 4.41758 0.0
Ar 6.43941 5.49518 0.0
Ar 6.62413 6.57637 0.0
Ar 6.71557 7.96702 0.0
Ar 7.8309 0.00221893 0.0
Ar 7.8853 1.10011 0.0
Ar 7.95078 2.29513 0.0
Ar 7.9486 3.36698 0.0
Ar 7.81019 4.43577 0.0
Ar 7.56331 5.52593 0.0
Ar 7.8155 6.59923 0.0
Ar 7.98953 7.7235 0.0
