64
Pas 0
Ar 8.94207 0.000513876 0.0
Ar 0.00103197 1.11494 0.0
Ar 8.94337 2.23362 0.0
Ar 8.94374 3.3563 0.0
Ar 0.00188877 4.46943 0.0
Ar 8.94299 5.59339 0.0
Ar 0.00197363 6.70636 0.0
Ar 8.94114 7.82952 0.0
Ar 1.11922 8.94407 0.0
Ar 1.11983 1.11659 0.0
Ar 1.11891 2.23309 0.0
Ar 1.11928 3.35129 0.0
Ar 1.12225 4.47287 0.0
Ar 1.1223 5.59395 0.0
Ar 1.11445 6.70813 0.0
Ar 1.11742 7.82859 0.0
Ar 2.23765 8.94259 0.0
Ar 2.23877 1.11972 0.0
Ar 2.23303 2.23998 0.0
Ar 2.23243 3.35089 0.0
Ar 2.23462 4.46939 0.0
Ar 2.23832 5.5901 0.0
Ar 2.23626 6.7071 0.0
Ar 2.23797 7.83032 0.0
Ar 3.35348 0.00190419 0.0
Ar 3.35526 1.11447 0.0
Ar 3.35226 2.23331 0.0
Ar 3.35841 3.35517 0.0
Ar 3.35134 4.47377 0.0
Ar 3.35313 5.58997 0.0
Ar 3.35108 6.70992 0.0
Ar 3.35797 7.82326 0.0
Ar 4.46887 0.00208513 0.0
Ar 4.47366 1.11494 0.0
Ar 4.46932 2.23753 0.0
Ar 4.47014 3.3515 0.0
Ar 4.46917 4.47589 0.0
Ar 4.4761 5.59263 0.0
Ar 4.46987 6.70418 0.0
Ar 4.47117 7.82187 0.0
Ar 5.58888 8.94394 0.0
Ar 5.58846 1.12 0.0
Ar 5.58678 2.2384 0.0
Ar 5.59374 3.35598 0.0
Ar 5.58829 4.4732 0.0
Ar 5.59386 5.59365 0.0
Ar 5.58714 6.70888 0.0
Ar 5.59372 7.82735 0.0
Ar 6.70464 0.00137533 0.0
Ar 6.71232 1.11884 0.0
Ar 6.70929 2.23352 0.0
Ar 6.71099 3.35626 0.0
Ar 6.7045 4.47634 0.0
Ar 6.70726 5.59073 0.0
Ar 6.70898 6.70829 0.0
Ar 6.71145 7.82421 0.0
Ar 7.83035 8.94278 0.0
Ar 7.82337 1.11457 0.0
Ar 7.82672 2.23783 0.0
Ar 7.82323 3.35306 0.0
Ar 7.82827 4.4699 0.0
Ar 7.82357 5.58927 0.0
Ar 7.82725 6.71136 0.0
Ar 7.82581 7.82179 0.0
64
Pas 10
Ar 8.92385 0.00532113 0.0
Ar 0.0106042 1.08556 0.0
Ar 8.93535 2.21014 0.0
Ar 8.93808 3.37507 0.0
Ar 0.0215158 4.44584 0.0
Ar 8.9311 5.62218 0.0
Ar 0.0190099 6.69139 0.0
Ar 8.91139 7.86003 0.0
Ar 1.13029 8.94254 0.0
Ar 1.13786 1.10207 0.0
Ar 1.12575 2.20384 0.0
Ar 1.12933 3.32408 0.0
Ar 1.16137 4.48011 0.0
Ar 1.16296 5.62964 0.0
Ar 1.08184 6.70948 0.0
Ar 1.11125 7.85044 0.0
Ar 2.25251 8.92932 0.0
Ar 2.26512 1.13646 0.0
Ar 2.20433 2.27522 0.0
Ar 2.19984 3.32227 0.0
Ar 2.22213 4.44247 0.0
Ar 2.26039 5.5881 0.0
Ar 2.23582 6.69759 0.0
Ar 2.257 7.86738 0.0
Ar 3.34692 0.0173434 0.0
Ar 3.3677 1.08123 0.0
Ar 3.33306 2.20649 0.0
Ar 3.39697 3.36506 0.0
Ar 3.32401 4.48935 0.0
Ar 3.34606 5.58924 0.0
Ar 3.32223 6.72473 0.0
Ar 3.39411 7.79665 0.0
Ar 4.43753 0.0192931 0.0
Ar 4.48765 1.08728 0.0
Ar 4.44118 2.24928 0.0
Ar 4.45454 3.32855 0.0
Ar 4.43967 4.51148 0.0
Ar 4.51467 5.61475 0.0
Ar 4.44649 6.66667 0.0
Ar 4.46477 7.7798 0.0
Ar 5.57438 8.9419 0.0
Ar 5.57406 1.13913 0.0
Ar 5.5541 2.26157 0.0
Ar 5.62789 3.37462 0.0
Ar 5.56844 4.48491 0.0
Ar 5.62904 5.62681 0.0
Ar 5.55794 6.7168 0.0
Ar 5.62815 7.83788 0.0
Ar 6.67149 0.0140261 0.0
Ar 6.74887 1.1259 0.0
Ar 6.71873 2.21056 0.0
Ar 6.73666 3.37728 0.0
Ar 6.66946 4.51636 0.0
Ar 6.69907 5.59754 0.0
Ar 6.71573 6.70854 0.0
Ar 6.74264 7.8056 0.0
Ar 7.86702 8.92625 0.0
Ar 7.79893 1.08184 0.0
Ar 7.83113 2.25313 0.0
Ar 7.79643 3.34319 0.0
Ar 7.84712 4.44828 0.0
Ar 7.79782 5.58094 0.0
Ar 7.83762 6.73821 0.0
Ar 7.822 7.78171 0.0
64
Pas 20
Ar 8.92523 0.00807243 0.0
Ar 0.0180389 1.0649 0.0
Ar 8.93171 2.19012 0.0
Ar 8.93087 3.37866 0.0
Ar 0.0438598 4.43779 0.0
Ar 8.92194 5.63522 0.0
Ar 0.0212304 6.6924 0.0
Ar 8.889 7.88092 0.0
Ar 1.13837 8.9434 0.0
Ar 1.15605 1.08726 0.0
Ar 1.12313 2.17711 0.0
Ar 1.12667 3.3003 0.0
Ar 1.18354 4.4872 0.0
Ar 1.19608 5.65553 0.0
Ar 1.06588 6.72067 0.0
Ar 1.10504 7.86481 0.0
Ar 2.26209 8.93406 0.0
Ar 2.2882 1.15286 0.0
Ar 2.18434 2.28772 0.0
Ar 2.18362 3.3152 0.0
Ar 2.22156 4.41773 0.0
Ar 2.27995 5.58088 0.0
Ar 2.22509 6.69317 0.0
Ar 2.27585 7.88575 0.0
Ar 3.33873 0.0149751 0.0
Ar 3.38373 1.06149 0.0
Ar 3.31035 2.18241 0.0
Ar 3.41437 3.37232 0.0
Ar 3.29857 4.50118 0.0
Ar 3.35111 5.59411 0.0
Ar 3.29976 6.72808 0.0
Ar 3.41765 7.78457 0.0
Ar 4.41259 0.0201422 0.0
Ar 4.49606 1.07471 0.0
Ar 4.41326 2.24855 0.0
Ar 4.4601 3.31818 0.0
Ar 4.41091 4.53965 0.0
Ar 4.5505 5.62128 0.0
Ar 4.41912 6.64575 0.0
Ar 4.47414 7.74322 0.0
Ar 5.55314 0.000794727 0.0
Ar 5.57091 1.15645 0.0
Ar 5.5259 2.2839 0.0
Ar 5.65614 3.39285 0.0
Ar 5.54413 4.50098 0.0
Ar 5.65427 5.65265 0.0
Ar 5.53226 6.73009 0.0
Ar 5.65866 7.84579 0.0
Ar 6.64746 0.0222817 0.0
Ar 6.76228 1.12783 0.0
Ar 6.72286 2.19904 0.0
Ar 6.74924 3.39724 0.0
Ar 6.64177 4.5462 0.0
Ar 6.69881 5.61061 0.0
Ar 6.71893 6.70622 0.0
Ar 6.76634 7.79438 0.0
Ar 7.88276 8.90314 0.0
Ar 7.7971 1.05554 0.0
Ar 7.83389 2.25855 0.0
Ar 7.78726 3.33572 0.0
Ar 7.86115 4.4302 0.0
Ar 7.7773 5.57471 0.0
Ar 7.84871 6.7387 0.0
Ar 7.82138 7.76623 0.0
64
Pas 30
Ar 0.00779412 0.00659967 0.0
Ar 0.0244576 1.06067 0.0
Ar 8.93358 2.17465 0.0
Ar 8.92165 3.36263 0.0
Ar 0.0681403 4.44929 0.0
Ar 8.91536 5.6281 0.0
Ar 0.00327752 6.71412 0.0
Ar 8.87981 7.88727 0.0
Ar 1.143 0.0021956 0.0
Ar 1.17435 1.07311 0.0
Ar 1.10675 2.15494 0.0
Ar 1.10674 3.28082 0.0
Ar 1.18046 4.4947 0.0
Ar 1.21865 5.66834 0.0
Ar 1.07297 6.74495 0.0
Ar 1.09889 7.86819 0.0
Ar 2.26126 0.0186915 0.0
Ar 2.30678 1.16844 0.0
Ar 2.17655 2.26931 0.0
Ar 2.18876 3.33598 0.0
Ar 2.23593 4.39825 0.0
Ar 2.29619 5.56679 0.0
Ar 2.20029 6.69367 0.0
Ar 2.29382 7.87951 0.0
Ar 3.3282 8.93222 0.0
Ar 3.40402 1.0603 0.0
Ar 3.28299 2.16241 0.0
Ar 3.40556 3.37669 0.0
Ar 3.27977 4.5081 0.0
Ar 3.37449 5.6059 0.0
Ar 3.28515 6.71688 0.0
Ar 3.42465 7.79166 0.0
Ar 4.39785 8.2457e-005 0.0
Ar 4.49833 1.08123 0.0
Ar 4.38574 2.23206 0.0
Ar 4.49282 3.32324 0.0
Ar 4.38283 4.55602 0.0
Ar 4.58388 5.60615 0.0
Ar 4.38584 6.6476 0.0
Ar 4.5055 7.71539 0.0
Ar 5.52375 0.010877 0.0
Ar 5.58254 1.17181 0.0
Ar 5.50298 2.30496 0.0
Ar 5.67451 3.41094 0.0
Ar 5.5139 4.52263 0.0
Ar 5.66281 5.66874 0.0
Ar 5.50975 6.75057 0.0
Ar 5.68361 7.85114 0.0
Ar 6.63378 0.0238754 0.0
Ar 6.74646 1.12253 0.0
Ar 6.71986 2.20417 0.0
Ar 6.74404 3.41689 0.0
Ar 6.62253 4.56027 0.0
Ar 6.71141 5.63125 0.0
Ar 6.71774 6.70263 0.0
Ar 6.77574 7.79387 0.0
Ar 7.87216 8.87289 0.0
Ar 7.82439 1.03644 0.0
Ar 7.83421 2.24984 0.0
Ar 7.80389 3.33088 0.0
Ar 7.87037 4.4187 0.0
Ar 7.76819 5.56964 0.0
Ar 7.85834 6.70486 0.0
Ar 7.82666 7.78061 0.0
64
Pas 40
Ar 0.0456759 0.00119932 0.0
Ar 0.0327645 1.07278 0.0
Ar 8.93798 2.16561 0.0
Ar 8.91278 3.33542 0.0
Ar 0.0886207 4.4711 0.0
Ar 8.91143 5.60985 0.0
Ar 8.92357 6.74823 0.0
Ar 8.88861 7.87844 0.0
Ar 1.14512 0.00273843 0.0
Ar 1.19287 1.06267 0.0
Ar 1.0811 2.13914 0.0
Ar 1.07852 3.26566 0.0
Ar 1.16383 4.50235 0.0
Ar 1.22951 5.6718 0.0
Ar 1.09101 6.77637 0.0
Ar 1.09325 7.86308 0.0
Ar 2.24779 0.0604387 0.0
Ar 2.32215 1.18029 0.0
Ar 2.17456 2.24098 0.0
Ar 2.20696 3.35714 0.0
Ar 2.24717 4.39406 0.0
Ar 2.31275 5.54711 0.0
Ar 2.16699 6.69635 0.0
Ar 2.30895 7.86037 0.0
Ar 3.31636 8.89165 0.0
Ar 3.42473 1.06593 0.0
Ar 3.25302 2.14812 0.0
Ar 3.38347 3.37774 0.0
Ar 3.27625 4.51286 0.0
Ar 3.41536 5.62034 0.0
Ar 3.27233 6.69995 0.0
Ar 3.42446 7.8092 0.0
Ar 4.39318 8.91147 0.0
Ar 4.50038 1.09737 0.0
Ar 4.35929 2.20714 0.0
Ar 4.53965 3.33795 0.0
Ar 4.35529 4.55519 0.0
Ar 4.61043 5.58585 0.0
Ar 4.35051 6.65437 0.0
Ar 4.55246 7.70197 0.0
Ar 5.49085 0.0267883 0.0
Ar 5.60515 1.18563 0.0
Ar 5.4843 2.32461 0.0
Ar 5.67735 3.43009 0.0
Ar 5.47937 4.54891 0.0
Ar 5.66207 5.6774 0.0
Ar 5.48838 6.77533 0.0
Ar 5.70035 7.85737 0.0
Ar 6.62726 0.0168613 0.0
Ar 6.71847 1.11307 0.0
Ar 6.70964 2.22368 0.0
Ar 6.73692 3.4355 0.0
Ar 6.60936 4.5614 0.0
Ar 6.7292 5.65119 0.0
Ar 6.71229 6.70513 0.0
Ar 6.77217 7.80344 0.0
Ar 7.84851 8.84484 0.0
Ar 7.86391 1.02404 0.0
Ar 7.83221 2.22766 0.0
Ar 7.83381 3.32616 0.0
Ar 7.87638 4.41597 0.0
Ar 7.77738 5.56221 0.0
Ar 7.85952 6.65767 0.0
Ar 7.83497 7.7972 0.0
64
Pas 50
Ar 0.0788346 8.93967 0.0
Ar 0.0476528 1.0916 0.0
Ar 8.93766 2.16664 0.0
Ar 8.91057 3.30604 0.0
Ar 0.0950916 4.49232 0.0
Ar 8.91118 5.59167 0.0
Ar 8.90907 6.78367 0.0
Ar 8.9148 7.86002 0.0
Ar 1.1474 8.93989 0.0
Ar 1.21208 1.05866 0.0
Ar 1.05661 2.13032 0.0
Ar 1.05342 3.25503 0.0
Ar 1.15122 4.50952 0.0
Ar 1.23039 5.67145 0.0
Ar 1.10054 6.80324 0.0
Ar 1.08936 7.85809 0.0
Ar 2.22621 0.102846 0.0
Ar 2.33739 1.1832 0.0
Ar 2.16538 2.22405 0.0
Ar 2.22808 3.35522 0.0
Ar 2.24025 4.41399 0.0
Ar 2.33373 5.52544 0.0
Ar 2.13939 6.69733 0.0
Ar 2.31853 7.83953 0.0
Ar 3.30247 8.85642 0.0
Ar 3.4401 1.066 0.0
Ar 3.22607 2.14088 0.0
Ar 3.3593 3.37556 0.0
Ar 3.28763 4.51863 0.0
Ar 3.46893 5.63006 0.0
Ar 3.25109 6.68912 0.0
Ar 3.42896 7.81985 0.0
Ar 4.39253 8.87382 0.0
Ar 4.51114 1.11091 0.0
Ar 4.33484 2.1843 0.0
Ar 4.5869 3.35541 0.0
Ar 4.33255 4.53559 0.0
Ar 4.62208 5.57271 0.0
Ar 4.32036 6.65189 0.0
Ar 4.6064 7.70472 0.0
Ar 5.4628 0.0467859 0.0
Ar 5.62916 1.19881 0.0
Ar 5.46813 2.34271 0.0
Ar 5.66478 3.4519 0.0
Ar 5.44362 4.57774 0.0
Ar 5.66731 5.68394 0.0
Ar 5.46602 6.79931 0.0
Ar 5.70536 7.8694 0.0
Ar 6.6238 0.000817926 0.0
Ar 6.69517 1.10502 0.0
Ar 6.693 2.25153 0.0
Ar 6.74215 3.45078 0.0
Ar 6.59893 4.55655 0.0
Ar 6.74336 5.66021 0.0
Ar 6.70243 6.72128 0.0
Ar 6.76583 7.82084 0.0
Ar 7.82217 8.83583 0.0
Ar 7.90073 1.0168 0.0
Ar 7.82811 2.19604 0.0
Ar 7.85811 3.31839 0.0
Ar 7.88046 4.42149 0.0
Ar 7.80557 5.54595 0.0
Ar 7.84589 6.61447 0.0
Ar 7.84191 7.78904 0.0
64
Pas 60
Ar 0.0957125 8.9362 0.0
Ar 0.0738077 1.10703 0.0
Ar 8.92488 2.18019 0.0
Ar 8.91941 3.27987 0.0
Ar 0.0810364 4.50484 0.0
Ar 8.91805 5.58211 0.0
Ar 8.9047 6.80661 0.0
Ar 0.00542273 7.84611 0.0
Ar 1.15314 8.92653 0.0
Ar 1.2326 1.05943 0.0
Ar 1.04189 2.12771 0.0
Ar 1.04013 3.24901 0.0
Ar 1.15001 4.51592 0.0
Ar 1.22553 5.67055 0.0
Ar 1.08623 6.81384 0.0
Ar 1.0904 7.86264 0.0
Ar 2.20492 0.136438 0.0
Ar 2.35527 1.17954 0.0
Ar 2.13959 2.22641 0.0
Ar 2.24564 3.33576 0.0
Ar 2.22025 4.44583 0.0
Ar 2.36024 5.50878 0.0
Ar 2.1305 6.69273 0.0
Ar 2.32156 7.8213 0.0
Ar 3.28342 8.84457 0.0
Ar 3.44876 1.05692 0.0
Ar 3.20708 2.13996 0.0
Ar 3.33954 3.37088 0.0
Ar 3.29324 4.52576 0.0
Ar 3.52925 5.63189 0.0
Ar 3.21695 6.68897 0.0
Ar 3.44508 7.80608 0.0
Ar 4.3873 8.83433 0.0
Ar 4.53499 1.11264 0.0
Ar 4.31286 2.17182 0.0
Ar 4.62054 3.37126 0.0
Ar 4.32653 4.50231 0.0
Ar 4.61823 5.56478 0.0
Ar 4.29994 6.64203 0.0
Ar 4.65728 7.71586 0.0
Ar 5.4473 0.0702351 0.0
Ar 5.64201 1.21321 0.0
Ar 5.45296 2.35936 0.0
Ar 5.65323 3.47816 0.0
Ar 5.41023 4.60686 0.0
Ar 5.68335 5.69329 0.0
Ar 5.4417 6.81883 0.0
Ar 5.70097 7.89106 0.0
Ar 6.62019 8.92399 0.0
Ar 6.69001 1.10045 0.0
Ar 6.67141 2.28278 0.0
Ar 6.75836 3.46026 0.0
Ar 6.58832 4.55138 0.0
Ar 6.75742 5.65821 0.0
Ar 6.68757 6.74865 0.0
Ar 6.76598 7.84317 0.0
Ar 7.79547 8.84683 0.0
Ar 7.92825 1.01344 0.0
Ar 7.82096 2.15969 0.0
Ar 7.86419 3.30651 0.0
Ar 7.88283 4.43012 0.0
Ar 7.84263 5.51592 0.0
Ar 7.81968 6.58462 0.0
Ar 7.84978 7.7528 0.0
64
Pas 70
Ar 0.09155 8.93687 0.0
Ar 0.111654 1.11629 0.0
Ar 8.89966 2.20039 0.0
Ar 8.93194 3.26348 0.0
Ar 0.0520508 4.5035 0.0
Ar 8.93827 5.58734 0.0
Ar 8.90097 6.80256 0.0
Ar 0.0375259 7.85093 0.0
Ar 1.15992 8.91581 0.0
Ar 1.25529 1.06062 0.0
Ar 1.03451 2.12947 0.0
Ar 1.04645 3.24758 0.0
Ar 1.14993 4.52149 0.0
Ar 1.21906 5.67003 0.0
Ar 1.05157 6.80484 0.0
Ar 1.10281 7.87356 0.0
Ar 2.19084 0.15237 0.0
Ar 2.37635 1.18468 0.0
Ar 2.10118 2.24077 0.0
Ar 2.25348 3.3145 0.0
Ar 2.19959 4.46737 0.0
Ar 2.39253 5.50789 0.0
Ar 2.13155 6.68121 0.0
Ar 2.32013 7.80678 0.0
Ar 3.2596 8.85405 0.0
Ar 3.45602 1.04099 0.0
Ar 3.19318 2.14292 0.0
Ar 3.33054 3.36482 0.0
Ar 3.27908 4.53434 0.0
Ar 3.58312 5.63032 0.0
Ar 3.17967 6.69447 0.0
Ar 3.47282 7.77106 0.0
Ar 4.37403 8.79471 0.0
Ar 4.56689 1.0997 0.0
Ar 4.29444 2.17144 0.0
Ar 4.62506 3.38144 0.0
Ar 4.3389 4.46139 0.0
Ar 4.61508 5.5562 0.0
Ar 4.2868 6.63079 0.0
Ar 4.68816 7.72471 0.0
Ar 5.44521 0.0971099 0.0
Ar 5.6399 1.23077 0.0
Ar 5.43784 2.37551 0.0
Ar 5.66478 3.5104 0.0
Ar 5.38513 4.63513 0.0
Ar 5.70241 5.70777 0.0
Ar 5.41651 6.83326 0.0
Ar 5.70269 7.92414 0.0
Ar 6.6134 8.90773 0.0
Ar 6.70886 1.09826 0.0
Ar 6.64662 2.31426 0.0
Ar 6.77828 3.46305 0.0
Ar 6.57543 4.54877 0.0
Ar 6.77925 5.65261 0.0
Ar 6.66718 6.77772 0.0
Ar 6.77595 7.86446 0.0
Ar 7.76872 8.86168 0.0
Ar 7.94667 1.01325 0.0
Ar 7.80797 2.12309 0.0
Ar 7.85421 3.29077 0.0
Ar 7.88221 4.4306 0.0
Ar 7.8757 5.47952 0.0
Ar 7.78718 6.56839 0.0
Ar 7.8624 7.7033 0.0
64
Pas 80
Ar 0.0698911 0.000589552 0.0
Ar 0.156742 1.12261 0.0
Ar 8.86882 2.21337 0.0
Ar 8.93909 3.26661 0.0
Ar 0.0184878 4.48975 0.0
Ar 0.0309216 5.6071 0.0
Ar 8.88723 6.77559 0.0
Ar 0.0585052 7.86755 0.0
Ar 1.15746 8.91822 0.0
Ar 1.28159 1.06034 0.0
Ar 1.02065 2.13263 0.0
Ar 1.07491 3.25073 0.0
Ar 1.1352 4.5261 0.0
Ar 1.21371 5.66971 0.0
Ar 1.01261 6.78326 0.0
Ar 1.13228 7.87427 0.0
Ar 2.18768 0.151433 0.0
Ar 2.39866 1.20728 0.0
Ar 2.06376 2.25506 0.0
Ar 2.24877 3.30288 0.0
Ar 2.18646 4.46877 0.0
Ar 2.43087 5.52735 0.0
Ar 2.1179 6.66361 0.0
Ar 2.31766 7.79576 0.0
Ar 3.23674 8.86825 0.0
Ar 3.46867 1.02268 0.0
Ar 3.17729 2.14719 0.0
Ar 3.33637 3.35852 0.0
Ar 3.25573 4.54474 0.0
Ar 3.60775 5.63123 0.0
Ar 3.15762 6.69778 0.0
Ar 3.50854 7.7328 0.0
Ar 4.35539 8.7591 0.0
Ar 4.59464 1.07519 0.0
Ar 4.28164 2.1784 0.0
Ar 4.60607 3.38059 0.0
Ar 4.34905 4.41991 0.0
Ar 4.63778 5.54226 0.0
Ar 4.27588 6.62141 0.0
Ar 4.68789 7.72327 0.0
Ar 5.45011 0.126802 0.0
Ar 5.63708 1.25277 0.0
Ar 5.42247 2.39295 0.0
Ar 5.69688 3.54764 0.0
Ar 5.37723 4.66325 0.0
Ar 5.71922 5.72794 0.0
Ar 5.39342 6.84423 0.0
Ar 5.72296 7.96738 0.0
Ar 6.6 8.9085 0.0
Ar 6.74452 1.09813 0.0
Ar 6.6201 2.3435 0.0
Ar 6.79511 3.46157 0.0
Ar 6.5591 4.54892 0.0
Ar 6.81102 5.64951 0.0
Ar 6.64085 6.80078 0.0
Ar 6.7979 7.87587 0.0
Ar 7.7424 8.86975 0.0
Ar 7.96067 1.01408 0.0
Ar 7.78529 2.09107 0.0
Ar 7.84128 3.27021 0.0
Ar 7.87463 4.40823 0.0
Ar 7.90001 5.45459 0.0
Ar 7.7522 6.55741 0.0
Ar 7.88108 7.65199 0.0
64
Pas 90
Ar 0.0356687 0.0189306 0.0
Ar 0.203551 1.12956 0.0
Ar 8.83664 2.21266 0.0
Ar 8.94312 3.2921 0.0
Ar 8.93222 4.47067 0.0
Ar 0.0798615 5.63385 0.0
Ar 8.85555 6.74105 0.0
Ar 0.0693162 7.87919 0.0
Ar 1.13834 8.93345 0.0
Ar 1.31352 1.06106 0.0
Ar 0.988107 2.13366 0.0
Ar 1.11807 3.25789 0.0
Ar 1.10253 4.52936 0.0
Ar 1.21193 5.66875 0.0
Ar 0.980674 6.75742 0.0
Ar 1.17669 7.85726 0.0
Ar 2.19105 0.144975 0.0
Ar 2.41995 1.23986 0.0
Ar 2.03764 2.26204 0.0
Ar 2.23681 3.30791 0.0
Ar 2.17838 4.45681 0.0
Ar 2.47311 5.55847 0.0
Ar 2.08048 6.64151 0.0
Ar 2.31712 7.78706 0.0
Ar 3.22308 8.87566 0.0
Ar 3.48947 1.0067 0.0
Ar 3.15648 2.15099 0.0
Ar 3.35483 3.35269 0.0
Ar 3.23735 4.55676 0.0
Ar 3.60203 5.6364 0.0
Ar 3.15484 6.69327 0.0
Ar 3.54964 7.70315 0.0
Ar 4.33435 8.73341 0.0
Ar 4.60804 1.04216 0.0
Ar 4.27499 2.18771 0.0
Ar 4.58248 3.36019 0.0
Ar 4.34318 4.38945 0.0
Ar 4.68374 5.52357 0.0
Ar 4.26508 6.61388 0.0
Ar 4.66952 7.7092 0.0
Ar 5.45473 0.158778 0.0
Ar 5.64968 1.28057 0.0
Ar 5.40699 2.41345 0.0
Ar 5.73053 3.58735 0.0
Ar 5.3893 4.69026 0.0
Ar 5.73794 5.75427 0.0
Ar 5.37567 6.85322 0.0
Ar 5.75099 8.0151 0.0
Ar 6.57841 8.92794 0.0
Ar 6.7884 1.10099 0.0
Ar 6.59258 2.368 0.0
Ar 6.80408 3.46098 0.0
Ar 6.53918 4.55071 0.0
Ar 6.84805 5.65188 0.0
Ar 6.60815 6.81336 0.0
Ar 6.83352 7.87725 0.0
Ar 7.71692 8.86862 0.0
Ar 7.9756 1.01124 0.0
Ar 7.74984 2.06862 0.0
Ar 7.83829 3.24194 0.0
Ar 7.85441 4.36149 0.0
Ar 7.92221 5.44579 0.0
Ar 7.7154 6.54236 0.0
Ar 7.90636 7.60611 0.0
